OpenDSS_files/OpenDSS_from_Dr/Bus20OpenDSS/Line.txt
New Line.L1     Phases=3     Bus1 =1.1.2.3           Bus2 =2.1.2.3     LineCode =1     Length = 1
New Line.L2     Phases=3     Bus1 =2.1.2.3           Bus2 =3.1.2.3     LineCode =2     Length = 1
New Line.L3     Phases=1     Bus1 =3.2           Bus2 =4.2     LineCode =3     Length = 1
New Line.L4     Phases=1     Bus1 =3.3           Bus2 =5.3     LineCode =4     Length = 1
New Line.L5     Phases=3     Bus1 =3.1.2.3           Bus2 =9.1.2.3     LineCode =5     Length = 1
New Line.L6     Phases=1     Bus1 =5.3           Bus2 =6.3     LineCode =6     Length = 1
New Line.L7     Phases=1     Bus1 =5.3           Bus2 =7.3     LineCode =7     Length = 1
New Line.L8     Phases=1     Bus1 =7.3           Bus2 =8.3     LineCode =8     Length = 1
New Line.L9     Phases=3     Bus1 =9.1.2.3           Bus2 =10.1.2.3     LineCode =9     Length = 1
New Line.L10     Phases=1     Bus1 =10.2           Bus2 =14.2     LineCode =10     Length = 1
New Line.L11     Phases=1     Bus1 =10.1           Bus2 =11.1     LineCode =11     Length = 1
New Line.L12     Phases=3     Bus1 =10.1.2.3           Bus2 =15.1.2.3     LineCode =12     Length = 1
New Line.L13     Phases=1     Bus1 =11.1           Bus2 =16.1     LineCode =13     Length = 1
New Line.L14     Phases=1     Bus1 =15.3           Bus2 =20.3     LineCode =14     Length = 1
New Line.L16     Phases=1     Bus1 =16.1           Bus2 =13.1     LineCode =16     Length = 1
New Line.L17     Phases=1     Bus1 =16.1           Bus2 =12.1     LineCode =17     Length = 1
New Line.L18     Phases=1     Bus1 =17.3           Bus2 =18.3     LineCode =18     Length = 1
New Line.L19     Phases=1     Bus1 =17.3           Bus2 =19.3     LineCode =19     Length = 1
New Line.L36     Phases=1     Bus1 =20.3           Bus2 =17.3     LineCode =36     Length = 1
